ELEMENTS
O  H  C  N  AR NE
END
SPECIES
CH4 O2 CO2 H2O AR
END
REACTIONS KCAL/MOLE
CH4+2O2<=>1CO2+2H2O 1.3E+8 0 48.4
FORD/CH4 -0.3/
FORD/O2 1.3/
END
